*HEADING
cubit(leaching/homogenous geometry/5nodes_ratio1_homogenous.inp): 09/21/2018: 14
version: 16.5
**
********************************** P A R T S **********************************
*PART, NAME=Part-Default
**
********************************** N O D E S **********************************
*NODE, NSET=ALLNODES
       1,   -2.840000e+02,   -2.245145e-14,   -1.833300e+02
       2,   -2.840000e+02,   -1.775704e+02,    4.559232e+01
       3,   -2.840000e+02,    0.000000e+00,   -1.890000e+02
       4,   -2.840000e+02,    2.314582e-14,    1.890000e+02
       5,   -1.284000e+03,   -2.242830e-14,    1.831410e+02
       6,   -1.284000e+03,   -1.773873e+02,   -4.554531e+01
       7,   -1.284000e+03,   -6.546962e-15,    5.346000e+01
       8,   -1.284000e+03,   -5.178046e+01,   -1.329496e+01
       9,   -1.284000e+03,    5.160930e+01,   -1.394459e+01
      10,   -1.135207e+02,   -6.778655e-15,   -5.535192e+01
      11,   -1.135207e+02,   -5.361294e+01,    1.376546e+01
      12,   -1.135207e+02,    1.850557e-14,   -1.511094e+02
      13,   -1.135207e+02,   -1.463620e+02,    3.757938e+01
      14,   -1.135207e+02,    5.343573e+01,    1.443808e+01
      15,   -1.824800e+02,    0.000000e+00,    5.346000e+01
      16,   -1.824800e+02,    5.160930e+01,    1.394459e+01
      17,   -1.824800e+02,   -5.178046e+01,   -1.329496e+01
      18,   -1.284000e+03,    0.000000e+00,   -1.890000e+02
      19,   -1.284000e+03,   -2.314582e-14,    1.890000e+02
      20,   -2.956920e+03,    0.000000e+00,   -5.346000e+01
** ... 5593 like lines cut
**
********************************** E L E M E N T S ****************************
*ELEMENT, TYPE=C3D4, ELSET=EB39
       1,    2135,    5062,    5063,    5064
       2,    2133,     552,     551,    5064
       3,    2157,    5065,    5066,    5064
       4,    2133,    2157,    5066,    5064
       5,    2133,     551,    2157,    5064
       6,    5065,    5062,    5067,    5064
       7,    5065,    5067,    5066,    5064
       8,    5068,    5062,    5065,    5064
       9,    2155,    5069,    5068,    5070
      10,     436,    5068,    5069,    5070
      11,    2158,    5068,    5071,    5070
      12,    2161,    5072,    5073,    5070
      13,    2066,    5073,      63,    5070
      14,    5072,    5074,    5073,    5070
      15,      63,     436,    2067,    5070
      16,     436,    5073,    5074,    5070
      17,    2136,    5075,    5076,    5066
      18,    2154,    2156,    5076,    5075
      19,      59,    5077,    5078,    5079
      20,    2133,     550,    2136,    5066
** ... 506 like lines cut
*ELEMENT, TYPE=C3D4, ELSET=EB40
     527,    5104,    5105,    5106,    5107
     528,     808,    5104,    5106,    5107
     529,     808,    5108,    5109,    5107
     530,    5110,    5111,    5112,    5107
     531,    5113,    5114,    5110,    5107
     532,     793,    5106,    5112,    5107
     533,     793,    5112,    5111,    5107
     534,     793,     853,     808,    5108
     535,     793,    5111,     853,    5108
     536,     774,    5115,     169,    5116
     537,     774,    5117,    5115,    5116
     538,     970,    5118,    5119,    5116
     539,    5120,    5119,    5121,    5116
     540,     804,    5122,    5123,    5124
     541,     837,     824,    5125,    5124
     542,     837,    5125,    5126,    5124
     543,    5127,    5126,    5128,    5124
     544,    5129,    5130,    5122,    5124
     545,     927,     950,     972,    5131
     546,    5132,    5133,    5134,    5131
** ... 4720 like lines cut
*ELEMENT, TYPE=C3D4, ELSET=EB25
    5267,     467,    2987,    1877,    2988
    5268,    1877,    1914,    2989,    2988
    5269,    1877,    2987,    1915,    2988
    5270,    1876,    1916,    1917,    2988
    5271,    1876,    2989,    1916,    2988
    5272,    1876,    1917,    2987,    2988
    5273,    1904,    1950,    2990,    2991
    5274,    1904,    1950,    1937,    2990
    5275,     473,    1900,    2990,    2991
    5276,    1951,    1950,    1907,    2990
    5277,     473,    1882,    1898,    2991
    5278,     473,    1898,    2992,    2991
    5279,     473,    2990,    1882,    2991
    5280,     459,    1885,    2993,    2994
    5281,      66,    2995,      70,    2994
    5282,     458,    2995,    1935,    2994
    5283,    1933,    2993,    1906,    2994
    5284,      66,      70,    1865,    2994
    5285,      66,    1865,    1885,    2994
    5286,      88,    2996,    2997,    2998
** ... 2072 like lines cut
*ELEMENT, TYPE=C3D4, ELSET=EB36
    7359,      11,     787,    3109,    3110
    7360,      11,      88,     188,    3110
    7361,     787,    3111,    3112,    3110
    7362,     781,    3111,     787,    3110
    7363,    2064,    3112,    3113,    3111
    7364,    2064,    3112,    3111,    3110
    7365,     787,    3112,    3109,    3110
    7366,     517,    3114,    3115,    3116
    7367,     519,    2099,    3115,    3116
    7368,     517,    3115,    3117,    3116
    7369,     536,     537,    3117,    3116
    7370,     537,    3118,    3117,    3119
    7371,     521,    2069,    3120,    3121
    7372,     536,    3117,    2099,    3116
    7373,    2061,    3122,    3123,    3124
    7374,     527,    2089,    3125,    3124
    7375,    2121,    3122,    2118,    3124
    7376,    2121,    3123,    3122,    3124
    7377,    2089,    3126,    3125,    3124
    7378,    2084,    3127,    3128,    3129
** ... 677 like lines cut
*ELEMENT, TYPE=C3D4, ELSET=EB37
    8056,     715,     714,    2673,    3163
    8057,     728,     751,    2647,    3164
    8058,    2670,    3165,    3166,    3163
    8059,     715,    2673,    3167,    3163
    8060,    3166,    3168,    3167,    3163
    8061,     715,    2616,     714,    3169
    8062,     715,    3169,     714,    3163
    8063,    3165,    3169,    3168,    3163
    8064,    2761,    2757,    3170,    3171
    8065,    2757,    3172,    3170,    3171
    8066,    2761,    3170,    3173,    3171
    8067,    2647,    3174,    2666,    3164
    8068,    3175,    3172,    3176,    3171
    8069,    3175,    3177,    3172,    3171
    8070,    3177,    3173,    3170,    3171
    8071,    3178,    3179,    3180,    3181
    8072,    1859,    3182,    3183,    3184
    8073,    3185,    3186,    3187,    3181
    8074,    2251,    3188,    3187,    3181
    8075,    3189,    3190,    3191,    3192
** ... 11149 like lines cut
*ELEMENT, TYPE=C3D4, ELSET=EB38
   19225,     351,    4344,    4345,    4346
   19226,    1449,    4347,    4348,    4349
   19227,    4350,    4348,    4347,    4349
   19228,    4350,    4347,    4351,    4349
   19229,      23,    4352,    4353,    4349
   19230,    1219,    4353,    4354,    4349
   19231,    1234,    4355,    4356,    4357
   19232,    4358,    4359,    4355,    4357
   19233,    4358,    4360,    4361,    4357
   19234,    1461,    1467,    4353,    4349
   19235,    1219,    4354,    1252,    4349
   19236,      23,    4351,    4347,    4349
   19237,      23,    4351,    4362,    4347
   19238,    4350,    4348,    4363,    4347
   19239,    1444,    4351,    4363,    4347
   19240,    1449,    4364,    4347,    4349
   19241,    1449,    1457,    4348,    4347
   19242,    1549,    4365,    1546,    4366
   19243,    1298,    4365,    4367,    4366
   19244,    1298,    4368,    4365,    4366
** ... 6977 like lines cut
**
********************************** P R O P E R T I E S ************************
*SOLID SECTION, ELSET=EB39, MATERIAL=Default-Steel
*SOLID SECTION, ELSET=EB40, MATERIAL=Default-Steel
*SOLID SECTION, ELSET=EB25, MATERIAL=Default-Steel
*SOLID SECTION, ELSET=EB36, MATERIAL=Default-Steel
*SOLID SECTION, ELSET=EB37, MATERIAL=Default-Steel
*SOLID SECTION, ELSET=EB38, MATERIAL=Default-Steel
**
*END PART
**
**
**
********************************** E N D   P A R T S **********************************
**
**
********************************** A S S E M B L Y ************************************
**
*ASSEMBLY, NAME=ASSEMBLY1
**
*INSTANCE, NAME=Part-Default_1, PART=Part-Default
*END INSTANCE
**
*END ASSEMBLY
**
**
**
*MATERIAL, NAME = Default-Steel
*ELASTIC, TYPE=ISOTROPIC
2.068000e+05, 2.900000e-01
*DENSITY
7.000000e-06
*CONDUCTIVITY,TYPE=ISO
4.500000e-02
*SPECIFIC HEAT
5.000000e+02
**
**
************************************** H I S T O R Y *************************************
**
*PREPRINT
**
**************************************** S T E P 1 ***************************************
*STEP,INC=100,NAME=Default Set
**
*STATIC
1, 1, 1e-05, 1
**
**
**
**
*END STEP
