*HEADING
cubit(ies/geoms_sausageshomogenous/5nodes_ratio3_homogenous.inp): 05/31/2019: 14
version: 16.5
**
********************************** P A R T S **********************************
*PART, NAME=Part-Default
**
********************************** N O D E S **********************************
*NODE, NSET=ALLNODES
       1,   -2.820000e+03,    0.000000e+00,   -6.300000e+01
       2,   -2.820000e+03,    4.482675e+01,    4.426695e+01
       3,   -1.881000e+03,    0.000000e+00,    6.300000e+01
       4,   -1.881000e+03,    6.081904e+01,    1.643301e+01
       5,   -2.820000e+03,   -6.102074e+01,   -1.566746e+01
       6,   -1.881000e+03,   -6.102074e+01,   -1.566746e+01
       7,   -1.717325e+03,   -2.950810e-15,   -2.409519e+01
       8,   -1.717325e+03,   -2.341165e+01,    5.698488e+00
       9,   -1.717325e+03,    1.402927e-14,   -1.145577e+02
      10,   -1.717325e+03,    1.105919e+02,    2.988140e+01
      11,   -1.717325e+03,    2.309576e+01,    6.867593e+00
      12,   -2.956920e+03,    0.000000e+00,   -1.782000e+01
      13,   -2.956920e+03,    1.267957e+01,    1.252122e+01
      14,   -1.749480e+03,    0.000000e+00,    1.782000e+01
      15,   -1.749480e+03,    1.708086e+01,    5.079043e+00
      16,   -2.956920e+03,   -1.731448e+01,   -4.214412e+00
      17,   -1.749480e+03,   -1.731448e+01,   -4.214412e+00
      18,   -3.058085e+03,    4.600089e-15,    3.756258e+01
      19,   -3.058085e+03,    2.672711e+01,    2.639334e+01
      20,   -3.134000e+03,    4.786934e-15,   -8.470000e+01
** ... 12124 like lines cut
**
********************************** E L E M E N T S ****************************
*ELEMENT, TYPE=C3D4, ELSET=EB39
       1,    9382,    9383,    9384,    9385
       2,    9386,    9384,    9387,    9385
       3,    9386,    9387,    9388,    9385
       4,    9389,    9390,    9391,    9385
       5,    9392,    9383,    9390,    9385
       6,    9393,    9388,    9387,    9385
       7,    9392,    9394,    9383,    9385
       8,    9389,    9395,    9393,    9385
       9,    9396,    9397,    9398,    9399
      10,    9400,    9401,    9397,    9399
      11,    9402,    9403,    9404,    9399
      12,    9405,    9401,    9406,    9399
      13,    9405,    9404,    9407,    9399
      14,    9401,    9398,    9397,    9399
      15,    9408,    9409,    9410,    9411
      16,    9412,    9410,    9413,    9411
      17,    9409,    9414,    9413,    9411
      18,    9415,    9416,    9417,    9414
      19,    9416,    9417,    9414,    9411
      20,    9417,    9413,    9414,    9411
** ... 12133 like lines cut
*ELEMENT, TYPE=C3D4, ELSET=EB40
   12154,   10761,   10762,   10763,   10764
   12155,   10763,   10762,   10765,   10764
   12156,   10765,   10764,   10762,   10766
   12157,   10767,   10765,   10768,   10766
   12158,   10769,   10770,   10764,   10766
   12159,   10771,   10772,   10773,   10774
   12160,   10775,   10762,   10776,   10766
   12161,   10776,   10770,   10777,   10766
   12162,   10778,   10779,   10780,   10781
   12163,    1411,   10778,   10779,   10780
   12164,   10778,   10782,   10783,   10781
   12165,   10784,   10785,   10786,   10787
   12166,     808,     909,     815,   10788
   12167,   10789,   10785,   10784,   10787
   12168,   10790,   10791,   10792,   10787
   12169,    5002,   10788,   10793,   10794
   12170,     195,   10795,    1060,   10796
   12171,   10797,   10798,   10799,   10796
   12172,   10800,   10801,   10797,   10796
   12173,    5058,   10802,     178,   10803
** ... 12139 like lines cut
*ELEMENT, TYPE=C3D4, ELSET=EB25
   24313,    5498,    5499,    5500,    5501
   24314,    5498,    5502,    5499,    5501
   24315,    5498,    5503,    5504,    5501
   24316,    5505,    5506,    5500,    5501
   24317,    5505,    5507,    5508,    5501
   24318,    2953,    2969,    5509,    5510
   24319,    5190,    5511,    5186,    5512
   24320,    5508,    5499,    5513,    5501
   24321,    2544,    5514,    5515,    5516
   24322,    2593,    5517,    2600,    5516
   24323,    2593,    5518,    2600,    5517
   24324,    2579,    5519,    5514,    5516
   24325,    3863,    3850,    3847,    5520
   24326,    2598,    2579,    2589,    5516
   24327,    2544,    5515,    2593,    5516
   24328,    3835,    3849,    3850,    5521
   24329,    3863,    3847,    3848,    5522
   24330,    2598,    2589,    2600,    5516
   24331,    5523,    5524,    5525,    5526
   24332,    3832,    3848,    3846,    5522
** ... 4642 like lines cut
*ELEMENT, TYPE=C3D4, ELSET=EB36
   28975,    5934,    5935,    5936,    5937
   28976,    5935,    5938,    5939,    5937
   28977,    5934,    5940,    5938,    5937
   28978,    5936,    5935,    5941,    5937
   28979,    5942,    5941,    5943,    5937
   28980,    5940,    5942,    5944,    5937
   28981,    5945,    5946,    5947,    5948
   28982,    5949,    5950,    5951,    5952
   28983,    5953,    5954,    5949,    5952
   28984,    5953,    5947,    5954,    5952
   28985,    5955,    5948,    5950,    5952
   28986,    5954,    5955,    5950,    5952
   28987,    5956,    5957,    5958,    5959
   28988,    5956,    5958,    5957,    5960
   28989,    5083,     261,      28,    5961
   28990,    5962,    5963,    5964,    5959
   28991,    5962,    5964,    5965,    5959
   28992,    5963,    5966,    5964,    5959
   28993,    5967,    5957,    5966,    5959
   28994,    5968,    5969,    5970,    5971
** ... 6502 like lines cut
*ELEMENT, TYPE=C3D4, ELSET=EB37
   35497,    6747,    6748,    6749,    6750
   35498,    6748,    6751,    6749,    6750
   35499,    6752,    6753,    6754,    6755
   35500,    6756,    6751,    6757,    6750
   35501,    6747,    6758,    6759,    6750
   35502,    6756,    6749,    6751,    6750
   35503,     374,     476,    5389,    6760
   35504,    6761,    6762,    6763,    6764
   35505,     507,    6765,    6766,    6767
   35506,    6768,    6769,    6770,    6767
   35507,      89,    6771,    6769,    6767
   35508,     512,    6770,    6771,    6767
   35509,    6772,    6773,    6774,    6775
   35510,    6776,    6777,    6778,    6775
   35511,    6772,    6777,    6773,    6775
   35512,    6774,    6779,    6780,    6775
   35513,    6781,    6782,    6783,    6784
   35514,    6785,    6786,    6787,    6788
   35515,    5321,    5322,    5324,    6789
   35516,    6790,    6776,    6791,    6775
** ... 11758 like lines cut
*ELEMENT, TYPE=C3D4, ELSET=EB38
   47275,    8072,    8073,    8074,    8075
   47276,    8076,    8073,    8072,    8075
   47277,    8077,    8078,    8079,    8080
   47278,    8081,    8082,    8073,    8083
   47279,    8081,    8084,    8082,    8083
   47280,    8085,    8086,    8087,    8088
   47281,    8089,    8090,    8091,    8088
   47282,    5184,    8092,    8093,    8094
   47283,    8095,    8086,    8096,    8088
   47284,    8085,    8097,    8086,    8088
   47285,    8098,    8099,    8100,    8101
   47286,    1972,    8102,    1906,    8101
   47287,    1972,    8098,    8103,    8101
   47288,    1840,    1906,    8102,    8101
   47289,    1907,    8099,    8098,    8101
   47290,    1840,    8102,    8099,    8101
   47291,    8104,    8105,    8106,    8107
   47292,    8108,    8109,    8110,    8107
   47293,    8111,    8106,    8105,    8107
   47294,    8111,    8105,    8112,    8107
** ... 11635 like lines cut
**
********************************** P R O P E R T I E S ************************
*SOLID SECTION, ELSET=EB39, MATERIAL=Default-Steel
*SOLID SECTION, ELSET=EB40, MATERIAL=Default-Steel
*SOLID SECTION, ELSET=EB25, MATERIAL=Default-Steel
*SOLID SECTION, ELSET=EB36, MATERIAL=Default-Steel
*SOLID SECTION, ELSET=EB37, MATERIAL=Default-Steel
*SOLID SECTION, ELSET=EB38, MATERIAL=Default-Steel
**
*END PART
**
**
**
********************************** E N D   P A R T S **********************************
**
**
********************************** A S S E M B L Y ************************************
**
*ASSEMBLY, NAME=ASSEMBLY1
**
*INSTANCE, NAME=Part-Default_1, PART=Part-Default
*END INSTANCE
**
*END ASSEMBLY
**
**
**
*MATERIAL, NAME = Default-Steel
*ELASTIC, TYPE=ISOTROPIC
2.068000e+05, 2.900000e-01
*DENSITY
7.000000e-06
*CONDUCTIVITY,TYPE=ISO
4.500000e-02
*SPECIFIC HEAT
5.000000e+02
**
**
************************************** H I S T O R Y *************************************
**
*PREPRINT
**
**************************************** S T E P 1 ***************************************
*STEP,INC=100,NAME=Default Set
**
*STATIC
1, 1, 1e-05, 1
**
**
**
**
*END STEP
