*HEADING
cubit(leaching/homogenous geometry/5nodes_ratio2_homogenous.inp): 09/21/2018: 12
version: 16.5
**
********************************** P A R T S **********************************
*PART, NAME=Part-Default
**
********************************** N O D E S **********************************
*NODE, NSET=ALLNODES
       1,   -1.253000e+03,    0.000000e+00,   -9.400000e+01
       2,   -1.253000e+03,    9.074587e+01,   -2.451910e+01
       3,   -3.140000e+02,    0.000000e+00,    9.400000e+01
       4,   -3.140000e+02,    9.074587e+01,    2.451910e+01
       5,   -1.253000e+03,   -9.104682e+01,   -2.337685e+01
       6,   -3.140000e+02,   -9.104682e+01,   -2.337685e+01
       7,   -1.427292e+03,   -3.960618e-15,    3.234090e+01
       8,   -1.427292e+03,   -2.301170e+01,   -2.272433e+01
       9,   -1.427292e+03,    1.558850e-14,    1.272898e+02
      10,   -1.427292e+03,    1.228832e+02,   -3.320246e+01
      11,   -1.427292e+03,    2.301170e+01,    2.272433e+01
      12,   -1.397080e+02,   -4.062382e-15,   -3.317186e+01
      13,   -1.397080e+02,   -2.330821e+01,   -2.360296e+01
      14,   -1.397080e+02,    1.558850e-14,   -1.272898e+02
      15,   -1.397080e+02,    1.228832e+02,    3.320246e+01
      16,   -1.397080e+02,    2.330821e+01,    2.360296e+01
      17,   -1.389920e+03,    0.000000e+00,   -2.659000e+01
      18,   -1.389920e+03,    1.891973e+01,    1.868346e+01
      19,   -1.824800e+02,    0.000000e+00,    2.659000e+01
      20,   -1.824800e+02,    1.868346e+01,    1.891973e+01
** ... 7734 like lines cut
**
********************************** E L E M E N T S ****************************
*ELEMENT, TYPE=C3D4, ELSET=EB39
       1,    6563,    6564,    6565,    6566
       2,    2132,    2127,    6567,    6566
       3,    2113,    6563,    6568,    6566
       4,    2113,    2132,    6563,    6566
       5,    1976,    6569,    6570,    6571
       6,    2499,    6572,    6573,    6574
       7,    6572,    6573,    6574,    6571
       8,    6572,    6575,    6573,    6571
       9,    6573,    6575,    6570,    6571
      10,    1976,    6570,    6576,    6571
      11,    6577,    6578,    6579,    6580
      12,    6581,    6582,    6583,    6580
      13,    3688,    3950,    3948,    6584
      14,    2631,    6585,    6583,    6580
      15,    2554,    6577,    6585,    6580
      16,    2554,    6585,    6577,    6586
      17,    6582,    6579,    6583,    6580
      18,    3687,    3688,    3948,    6584
      19,    2132,    6564,    6563,    6566
      20,    2133,    2126,    6587,    6564
** ... 7629 like lines cut
*ELEMENT, TYPE=C3D4, ELSET=EB40
    7650,     766,    7349,     812,    7350
    7651,     812,    7349,    7351,    7350
    7652,    3805,    7352,    7351,    7350
    7653,    3803,    7349,    3805,    7351
    7654,    3805,    7351,    7349,    7350
    7655,    3632,    7353,    7354,    7355
    7656,     714,    7356,    7357,    7355
    7657,     666,     698,     667,    7354
    7658,     135,     666,     667,    7354
    7659,     134,     135,    7353,    7355
    7660,     134,    7356,     666,    7355
    7661,    1056,    7358,    7359,    7360
    7662,    1019,    7361,    7362,    7360
    7663,    7363,    7364,    7365,    7366
    7664,    7363,    7365,    7367,    7366
    7665,    3840,    7365,     199,    7366
    7666,    3777,    3779,    3624,    7368
    7667,     198,     199,    3840,    7365
    7668,    3820,    7369,    3840,    7366
    7669,    3840,    7370,    7365,    7367
** ... 4423 like lines cut
*ELEMENT, TYPE=C3D4, ELSET=EB25
   12093,    1107,    4133,    1112,    4134
   12094,    1107,    1108,    1112,    4133
   12095,    1111,    4133,    1107,    4134
   12096,    1112,    4135,    4136,    4134
   12097,    1109,    1111,    4137,    4134
   12098,    4138,    4139,    4140,    4134
   12099,    4141,    4135,    4140,    4134
   12100,    4142,    4143,    4144,    4145
   12101,    4146,    4143,    4147,    4145
   12102,    4148,    4149,    4150,    4145
   12103,    3707,    4066,    4151,    4152
   12104,     384,    4153,    1969,    4154
   12105,     385,    1972,    4155,    4154
   12106,      12,    4156,    4157,    4158
   12107,     385,    4159,    4160,    4154
   12108,    4160,    4144,    4161,    4154
   12109,    3717,    4074,    4050,    4051
   12110,    4162,    4161,    4142,    4154
   12111,    4048,    3717,    4050,    4163
   12112,    4048,    3716,    3717,    4163
** ... 2916 like lines cut
*ELEMENT, TYPE=C3D4, ELSET=EB36
   15029,    4340,    4341,    4342,    4343
   15030,    4344,    4345,    4346,    4347
   15031,    4348,    4349,    4350,    4347
   15032,    4344,    4348,    4351,    4347
   15033,    4344,    4351,    4345,    4347
   15034,    4352,    4353,    4354,    4355
   15035,     221,    1149,    4354,    4355
   15036,    1148,    4356,    4352,    4355
   15037,    1148,    4357,    4356,    4355
   15038,    4358,    4359,    4360,    4361
   15039,    4358,    4359,    4362,    4360
   15040,    1098,    4358,    4363,    4361
   15041,    1098,    4363,    4364,    4361
   15042,     244,    4365,    4366,    4367
   15043,     192,     191,    1181,    4368
   15044,    4369,    4370,    4364,    4361
   15045,    4371,    4372,    4360,    4370
   15046,    4371,    4370,    4360,    4361
   15047,    4373,    4374,    4375,    4376
   15048,    4375,    4374,    4377,    4376
** ... 2833 like lines cut
*ELEMENT, TYPE=C3D4, ELSET=EB37
   17882,    4653,    4654,    4655,    4656
   17883,    4653,    4657,    4658,    4656
   17884,    4659,    4660,    4661,    4656
   17885,    4662,    4663,    4664,    4656
   17886,    4657,    4660,    4658,    4656
   17887,    1332,    4653,    4662,    4656
   17888,    1332,    4662,    4664,    4656
   17889,    4665,    4666,    4667,    4668
   17890,    4669,    4667,    4670,    4668
   17891,    3896,    4671,    4672,    4673
   17892,    4674,    4675,    4676,    4677
   17893,    4667,    4678,    4670,    4668
   17894,    3926,    4666,    4679,    4668
   17895,    4680,    4667,    4665,    4666
   17896,    4681,    4682,    4683,    4684
   17897,    1962,    1966,    4685,    4684
   17898,    1918,    1927,    1962,    4686
   17899,    1927,    1962,    4686,    4684
   17900,    3914,    4687,    4688,    4689
   17901,    4690,    4691,    4682,    4684
** ... 7365 like lines cut
*ELEMENT, TYPE=C3D4, ELSET=EB38
   25267,    2864,    2897,    5402,    5403
   25268,    5404,    5405,    5406,    5403
   25269,    2863,    5407,    5408,    5403
   25270,    2864,    5407,    2863,    5403
   25271,     543,    5404,    2864,    5402
   25272,     543,    5409,    5410,    5402
   25273,    5411,    5412,    5413,    5414
   25274,    5415,    5405,    5402,    5403
   25275,    5416,    5405,    5417,    5403
   25276,    5416,    5406,    5405,    5403
   25277,    4036,    5418,    5419,    5420
   25278,    2865,    2897,    2927,    5415
   25279,    4053,    3723,    4055,    5421
   25280,    2865,    2897,    5415,    5402
   25281,    2684,    2711,    5422,    5423
   25282,    2684,    5422,    5424,    5423
   25283,    5425,    5422,    5426,    5423
   25284,    5425,    5427,    5428,    5423
   25285,    5422,    5428,    5424,    5423
   25286,    2684,    5429,    5430,    5423
** ... 10760 like lines cut
**
********************************** P R O P E R T I E S ************************
*SOLID SECTION, ELSET=EB39, MATERIAL=Default-Steel
*SOLID SECTION, ELSET=EB40, MATERIAL=Default-Steel
*SOLID SECTION, ELSET=EB25, MATERIAL=Default-Steel
*SOLID SECTION, ELSET=EB36, MATERIAL=Default-Steel
*SOLID SECTION, ELSET=EB37, MATERIAL=Default-Steel
*SOLID SECTION, ELSET=EB38, MATERIAL=Default-Steel
**
*END PART
**
**
**
********************************** E N D   P A R T S **********************************
**
**
********************************** A S S E M B L Y ************************************
**
*ASSEMBLY, NAME=ASSEMBLY1
**
*INSTANCE, NAME=Part-Default_1, PART=Part-Default
*END INSTANCE
**
*END ASSEMBLY
**
**
**
*MATERIAL, NAME = Default-Steel
*ELASTIC, TYPE=ISOTROPIC
2.068000e+05, 2.900000e-01
*DENSITY
7.000000e-06
*CONDUCTIVITY,TYPE=ISO
4.500000e-02
*SPECIFIC HEAT
5.000000e+02
**
**
************************************** H I S T O R Y *************************************
**
*PREPRINT
**
**************************************** S T E P 1 ***************************************
*STEP,INC=100,NAME=Default Set
**
*STATIC
1, 1, 1e-05, 1
**
**
**
**
*END STEP
